<?xml version="1.0" encoding="UTF-8"?>

<!-- generated on 2023-01-11 16:28:48 by Eclipse SUMO GUI Version 1.15.0
-->

<configuration xmlns:xsi="http://www.w3.org/2001/XMLSchema-instance" xsi:noNamespaceSchemaLocation="http://sumo.dlr.de/xsd/sumoConfiguration.xsd">

    <input>
        <net-file value="learning_net.net.xml"/>
        <route-files value="eval_rou.rou.xml"/>
    </input>

</configuration>
