<?xml version="1.0" encoding="UTF-8"?>

<!-- generated on 2023-01-18 22:16:09 by Eclipse SUMO netedit Version 1.15.0
-->

<routes xmlns:xsi="http://www.w3.org/2001/XMLSchema-instance" xsi:noNamespaceSchemaLocation="http://sumo.dlr.de/xsd/routes_file.xsd">
    <!-- VTypes -->
    <vType id="no_co-op" lcCooperative="-1" carFollowModel="IDM"/>
    <vType id="rl" color="red" accel="3" decel="3"/>
    <!-- Routes -->
    <route id="r_0" edges="on-ramp merging outgoing"/>
    <route id="r_1" edges="incoming merging outgoing"/>
    <!-- Vehicles, persons and containers (sorted by depart) -->
    <trip id="rl" type="rl" depart="0.00" departSpeed="13.00" from="on-ramp" to="outgoing" via="merging"/>
    <flow id="f_0" type="no_co-op" begin="0.00" departLane="1" departSpeed="22.00" route="r_1" end="3600.00" probability="0.10"/>
    <flow id="f_1" type="no_co-op" begin="0.00" departLane="0" departSpeed="22.00" route="r_1" end="3600.00" probability="0.15"/>
</routes>
